data_CIFEXP
_cell_length_a                    1
_cell_length_b                    1
_cell_length_c                    1
_cell_angle_alpha                 90
_cell_angle_beta                  90
_cell_angle_gamma                 90
_chemical_formula_sum             
;
H1 D1 He1 Li1 Be1 B1 C1 N1 O1 F1 Na1 Mg1 Al1 Si1 P1 S1 Cl1 K1 Ca1 Sc1 Ti1 V1 Cr1 Mn1 Fe1 Co1 Ni1 Cu1 Zn1 Ga1 Ge1 As1 Se1 Br1 Kr1 Rb1 Sr1 Y1 Zr1 Nb1 Mo1 Tc1 Ru1 Rh1 Pd1 Ag1 Cd1 In1 Sn1 Sb1 Te1 I1 Xe1 Cs1 Ba1 La1 Hf1 Ta1 W1 Re1 Os1 Ir1 Pt1 Au1 Hg1 Tl1 Pb1 Bi1 Po1 At1 Rn1 Fr1 Ra1 Ac1 Ce1 Pr1 Nd1 Pm1 Sm1 Eu1 Gd1 Tb1 Dy1 Ho1 Er1 Tm1 Yb1 Lu1 Th1 Pa1 U1 Np1 Pu1 Am1 Cm1 Bk1 Cf1 Es1 Fm1 Md1 No1 Lr1 Ne1 Ar1
;
_chemical_formula_weight          13060.54475
_cell_formula_units_Z             '1'
_symmetry_cell_setting            'Triclinic'
_symmetry_space_group_name_H-M    'P1'
_symmetry_space_group_name_Hall   'P 1'
loop_
  _symmetry_equiv_pos_as_xyz
 '+X,+Y,+Z'

loop_
  _atom_site_label
  _atom_site_type_symbol
  _atom_site_fract_x
  _atom_site_fract_y
  _atom_site_fract_z
 H H 0 0 0
 D D 1 0 0
 He He 1 0 17
 Li Li 2 0 0
 Be Be 2 0 1
 B B 2 0 12
 C C 2 0 13
 N N 2 0 14
 O O 2 0 15
 F F 2 0 16
 Na Na 3 0 0
 Mg Mg 3 0 1
 Al Al 3 0 12
 Si Si 3 0 13
 P P 3 0 14
 S S 3 0 15
 Cl Cl 3 0 16
 K K 4 0 0
 Ca Ca 4 0 1
 Sc Sc 4 0 2
 Ti Ti 4 0 3
 V V 4 0 4
 Cr Cr 4 0 5
 Mn Mn 4 0 6
 Fe Fe 4 0 7
 Co Co 4 0 8
 Ni Ni 4 0 9
 Cu Cu 4 0 10
 Zn Zn 4 0 11
 Ga Ga 4 0 12
 Ge Ge 4 0 13
 As As 4 0 14
 Se Se 4 0 15
 Br Br 4 0 16
 Kr Kr 4 0 17
 Rb Rb 5 0 0
 Sr Sr 5 0 1
 Y Y 5 0 2
 Zr Zr 5 0 3
 Nb Nb 5 0 4
 Mo Mo 5 0 5
 Tc Tc 5 0 6
 Ru Ru 5 0 7
 Rh Rh 5 0 8
 Pd Pd 5 0 9
 Ag Ag 5 0 10
 Cd Cd 5 0 11
 In In 5 0 12
 Sn Sn 5 0 13
 Sb Sb 5 0 14
 Te Te 5 0 15
 I I 5 0 16
 Xe Xe 5 0 17
 Cs Cs 6 0 0
 Ba Ba 6 0 1
 La La 6 0 2
 Hf Hf 6 0 3
 Ta Ta 6 0 4
 W W 6 0 5
 Re Re 6 0 6
 Os Os 6 0 7
 Ir Ir 6 0 8
 Pt Pt 6 0 9
 Au Au 6 0 10
 Hg Hg 6 0 11
 Tl Tl 6 0 12
 Pb Pb 6 0 13
 Bi Bi 6 0 14
 Po Po 6 0 15
 At At 6 0 16
 Rn Rn 6 0 17
 Fr Fr 7 0 0
 Ra Ra 7 0 1
 Ac Ac 7 0 2
 Ce Ce 8 0 4
 Pr Pr 8 0 5
 Nd Nd 8 0 6
 Pm Pm 8 0 7
 Sm Sm 8 0 8
 Eu Eu 8 0 9
 Gd Gd 8 0 10
 Tb Tb 8 0 11
 Dy Dy 8 0 12
 Ho Ho 8 0 13
 Er Er 8 0 14
 Tm Tm 8 0 15
 Yb Yb 8 0 16
 Lu Lu 8 0 17
 Th Th 9 0 4
 Pa Pa 9 0 5
 U U 9 0 6
 Np Np 9 0 7
 Pu Pu 9 0 8
 Am Am 9 0 9
 Cm Cm 9 0 10
 Bk Bk 9 0 11
 Cf Cf 9 0 12
 Es Es 9 0 13
 Fm Fm 9 0 14
 Md Md 9 0 15
 No No 9 0 16
 Lr Lr 9 0 17
 Ne Ne 2 0 17
 Ar Ar 3 0 17

loop_
  _atom_site_aniso_label
  _atom_site_aniso_U_11
  _atom_site_aniso_U_22
  _atom_site_aniso_U_33
  _atom_site_aniso_U_23
  _atom_site_aniso_U_13
  _atom_site_aniso_U_12
 D 0.025 0.025 0.025 -0 -0 -0
 He 0.025 0.025 0.025 -0 -0 -0
 Li 0.025 0.025 0.025 -0 -0 -0
 Be 0.025 0.025 0.025 -0 -0 -0
 B 0.025 0.025 0.025 -0 -0 -0
 C 0.025 0.025 0.025 -0 -0 -0
 N 0.025 0.025 0.025 -0 -0 -0
 O 0.025 0.025 0.025 -0 -0 -0
 F 0.025 0.025 0.025 -0 -0 -0
 Na 0.025 0.025 0.025 -0 -0 -0
 Mg 0.025 0.025 0.025 -0 -0 -0
 Al 0.025 0.025 0.025 -0 -0 -0
 Si 0.025 0.025 0.025 -0 -0 -0
 P 0.025 0.025 0.025 -0 -0 -0
 S 0.025 0.025 0.025 -0 -0 -0
 Cl 0.025 0.025 0.025 -0 -0 -0
 K 0.025 0.025 0.025 -0 -0 -0
 Ca 0.025 0.025 0.025 -0 -0 -0
 Sc 0.025 0.025 0.025 -0 -0 -0
 Ti 0.025 0.025 0.025 -0 -0 -0
 V 0.025 0.025 0.025 -0 -0 -0
 Cr 0.025 0.025 0.025 -0 -0 -0
 Mn 0.025 0.025 0.025 -0 -0 -0
 Fe 0.025 0.025 0.025 -0 -0 -0
 Co 0.025 0.025 0.025 -0 -0 -0
 Ni 0.025 0.025 0.025 -0 -0 -0
 Cu 0.025 0.025 0.025 -0 -0 -0
 Zn 0.025 0.025 0.025 -0 -0 -0
 Ga 0.025 0.025 0.025 -0 -0 -0
 Ge 0.025 0.025 0.025 -0 -0 -0
 As 0.025 0.025 0.025 -0 -0 -0
 Se 0.025 0.025 0.025 -0 -0 -0
 Br 0.025 0.025 0.025 -0 -0 -0
 Kr 0.025 0.025 0.025 -0 -0 -0
 Rb 0.025 0.025 0.025 -0 -0 -0
 Sr 0.025 0.025 0.025 -0 -0 -0
 Y 0.025 0.025 0.025 -0 -0 -0
 Zr 0.025 0.025 0.025 -0 -0 -0
 Nb 0.025 0.025 0.025 -0 -0 -0
 Mo 0.025 0.025 0.025 -0 -0 -0
 Tc 0.025 0.025 0.025 -0 -0 -0
 Ru 0.025 0.025 0.025 -0 -0 -0
 Rh 0.025 0.025 0.025 -0 -0 -0
 Pd 0.025 0.025 0.025 -0 -0 -0
 Ag 0.025 0.025 0.025 -0 -0 -0
 Cd 0.025 0.025 0.025 -0 -0 -0
 In 0.025 0.025 0.025 -0 -0 -0
 Sn 0.025 0.025 0.025 -0 -0 -0
 Sb 0.025 0.025 0.025 -0 -0 -0
 Te 0.025 0.025 0.025 -0 -0 -0
 I 0.025 0.025 0.025 -0 -0 -0
 Xe 0.025 0.025 0.025 -0 -0 -0
 Cs 0.025 0.025 0.025 -0 -0 -0
 Ba 0.025 0.025 0.025 -0 -0 -0
 La 0.025 0.025 0.025 -0 -0 -0
 Hf 0.025 0.025 0.025 -0 -0 -0
 Ta 0.025 0.025 0.025 -0 -0 -0
 W 0.025 0.025 0.025 -0 -0 -0
 Re 0.025 0.025 0.025 -0 -0 -0
 Os 0.025 0.025 0.025 -0 -0 -0
 Ir 0.025 0.025 0.025 -0 -0 -0
 Pt 0.025 0.025 0.025 -0 -0 -0
 Au 0.025 0.025 0.025 -0 -0 -0
 Hg 0.025 0.025 0.025 -0 -0 -0
 Tl 0.025 0.025 0.025 -0 -0 -0
 Pb 0.025 0.025 0.025 -0 -0 -0
 Bi 0.025 0.025 0.025 -0 -0 -0
 Po 0.025 0.025 0.025 -0 -0 -0
 At 0.025 0.025 0.025 -0 -0 -0
 Rn 0.025 0.025 0.025 -0 -0 -0
 Fr 0.025 0.025 0.025 -0 -0 -0
 Ra 0.025 0.025 0.025 -0 -0 -0
 Ac 0.025 0.025 0.025 -0 -0 -0
 Ce 0.025 0.025 0.025 -0 -0 -0
 Pr 0.025 0.025 0.025 -0 -0 -0
 Nd 0.025 0.025 0.025 -0 -0 -0
 Pm 0.025 0.025 0.025 -0 -0 -0
 Sm 0.025 0.025 0.025 -0 -0 -0
 Eu 0.025 0.025 0.025 -0 -0 -0
 Gd 0.025 0.025 0.025 -0 -0 -0
 Tb 0.025 0.025 0.025 -0 -0 -0
 Dy 0.025 0.025 0.025 -0 -0 -0
 Ho 0.025 0.025 0.025 -0 -0 -0
 Er 0.025 0.025 0.025 -0 -0 -0
 Tm 0.025 0.025 0.025 -0 -0 -0
 Yb 0.025 0.025 0.025 -0 -0 -0
 Lu 0.025 0.025 0.025 -0 -0 -0
 Th 0.025 0.025 0.025 -0 -0 -0
 Pa 0.025 0.025 0.025 -0 -0 -0
 U 0.025 0.025 0.025 -0 -0 -0
 Np 0.025 0.025 0.025 -0 -0 -0
 Pu 0.025 0.025 0.025 -0 -0 -0
 Am 0.025 0.025 0.025 -0 -0 -0
 Cm 0.025 0.025 0.025 -0 -0 -0
 Bk 0.025 0.025 0.025 -0 -0 -0
 Cf 0.025 0.025 0.025 -0 -0 -0
 Es 0.025 0.025 0.025 -0 -0 -0
 Fm 0.025 0.025 0.025 -0 -0 -0
 Md 0.025 0.025 0.025 -0 -0 -0
 No 0.025 0.025 0.025 -0 -0 -0
 Lr 0.025 0.025 0.025 -0 -0 -0
 Ne 0.025 0.025 0.025 -0 -0 -0
 Ar 0.025 0.025 0.025 -0 -0 -0
